<?xml version="1.0" encoding="UTF-8"?>

<!-- generated on 2025-08-08 02:21:37 by Eclipse SUMO netedit Version 1.18.0
<configuration xmlns:xsi="http://www.w3.org/2001/XMLSchema-instance" xsi:noNamespaceSchemaLocation="http://sumo.dlr.de/xsd/neteditConfiguration.xsd">

    <input>
        <sumo-net-file value="/home/midpare/Documents/git/sumo/test.net.xml"/>
    </input>

    <output>
        <output-file value="/home/midpare/Documents/git/sumo/test.net.xml"/>
    </output>

    <processing>
        <geometry.min-radius.fix.railways value="false"/>
        <geometry.avoid-overlap value="0"/>
        <geometry.max-grade.fix value="false"/>
        <offset.disable-normalization value="true"/>
        <lefthand value="0"/>
    </processing>

    <junctions>
        <no-turnarounds value="true"/>
        <junctions.corner-detail value="5"/>
        <junctions.limit-turn-speed value="5.50"/>
        <rectangular-lane-cut value="0"/>
    </junctions>

    <pedestrian>
        <walkingareas value="0"/>
    </pedestrian>

</configuration>
-->

<net version="1.16" junctionCornerDetail="5" limitTurnSpeed="5.50" avoidOverlap="0" xmlns:xsi="http://www.w3.org/2001/XMLSchema-instance" xsi:noNamespaceSchemaLocation="http://sumo.dlr.de/xsd/net_file.xsd">

    <location netOffset="0.00,0.00" convBoundary="-25.79,-3.10,110.80,113.42" origBoundary="-10000000000.00,-10000000000.00,10000000000.00,10000000000.00" projParameter="!"/>

    <edge id=":J_0" function="internal">
        <lane id=":J_0_0" index="0" speed="6.65" length="9.36" shape="36.02,69.49 35.62,66.92 34.53,65.08 32.74,63.97 30.26,63.61"/>
    </edge>
    <edge id=":J_1" function="internal">
        <lane id=":J_1_0" index="0" speed="13.89" length="27.56" shape="36.02,69.49 35.86,41.85"/>
        <lane id=":J_1_1" index="1" speed="13.89" length="27.56" shape="39.22,69.43 39.06,41.88"/>
        <lane id=":J_1_2" index="2" speed="13.89" length="27.56" shape="42.42,69.38 42.26,41.90"/>
    </edge>
    <edge id=":J_4" function="internal">
        <lane id=":J_4_0" index="0" speed="10.34" length="24.70" shape="42.42,69.38 43.26,62.64 46.06,57.83 50.81,54.94 57.53,53.96"/>
    </edge>
    <edge id=":J_5" function="internal">
        <lane id=":J_5_0" index="0" speed="6.47" length="9.03" shape="57.54,63.56 55.09,63.92 53.35,64.98 52.33,66.74 52.02,69.20"/>
    </edge>
    <edge id=":J_6" function="internal">
        <lane id=":J_6_0" index="0" speed="13.89" length="27.28" shape="57.54,63.56 30.26,63.61"/>
        <lane id=":J_6_1" index="1" speed="13.89" length="27.28" shape="57.54,60.36 30.25,60.41"/>
        <lane id=":J_6_2" index="2" speed="13.89" length="27.28" shape="57.53,57.16 30.25,57.21"/>
    </edge>
    <edge id=":J_9" function="internal">
        <lane id=":J_9_0" index="0" speed="10.36" length="5.04" shape="57.53,57.16 52.54,56.46"/>
    </edge>
    <edge id=":J_20" function="internal">
        <lane id=":J_20_0" index="0" speed="10.36" length="19.63" shape="52.54,56.46 50.81,56.22 46.03,53.36 43.18,48.59 42.26,41.90"/>
    </edge>
    <edge id=":J_10" function="internal">
        <lane id=":J_10_0" index="0" speed="6.51" length="9.09" shape="51.86,41.96 52.20,44.42 53.26,46.17 55.03,47.22 57.51,47.56"/>
    </edge>
    <edge id=":J_11" function="internal">
        <lane id=":J_11_0" index="0" speed="13.89" length="27.32" shape="51.86,41.96 52.02,69.20"/>
        <lane id=":J_11_1" index="1" speed="13.89" length="27.32" shape="48.66,41.94 48.82,69.26"/>
        <lane id=":J_11_2" index="2" speed="13.89" length="27.32" shape="45.46,41.92 45.62,69.32"/>
    </edge>
    <edge id=":J_14" function="internal">
        <lane id=":J_14_0" index="0" speed="10.40" length="24.55" shape="45.46,41.92 44.47,48.60 41.61,53.38 36.87,56.25 30.25,57.21"/>
    </edge>
    <edge id=":J_15" function="internal">
        <lane id=":J_15_0" index="0" speed="6.57" length="9.16" shape="30.24,47.61 32.68,47.25 34.44,46.17 35.50,44.37 35.86,41.85"/>
    </edge>
    <edge id=":J_16" function="internal">
        <lane id=":J_16_0" index="0" speed="13.89" length="27.28" shape="30.24,47.61 57.51,47.56"/>
        <lane id=":J_16_1" index="1" speed="13.89" length="27.28" shape="30.24,50.81 57.52,50.76"/>
        <lane id=":J_16_2" index="2" speed="13.89" length="27.28" shape="30.24,54.01 57.53,53.96"/>
    </edge>
    <edge id=":J_19" function="internal">
        <lane id=":J_19_0" index="0" speed="10.46" length="4.94" shape="30.24,54.01 35.14,54.71"/>
    </edge>
    <edge id=":J_21" function="internal">
        <lane id=":J_21_0" index="0" speed="10.46" length="19.71" shape="35.14,54.71 36.87,54.96 41.64,57.83 44.56,62.61 45.62,69.32"/>
    </edge>

    <edge id="E2J" from="E" to="J" priority="0">
        <lane id="E2J_0" index="0" speed="13.89" length="53.27" shape="110.82,63.46 57.54,63.56"/>
        <lane id="E2J_1" index="1" speed="13.89" length="53.27" shape="110.81,60.26 57.54,60.36"/>
        <lane id="E2J_2" index="2" speed="13.89" length="53.27" shape="110.80,57.06 57.53,57.16"/>
    </edge>
    <edge id="J2E" from="J" to="E" priority="0">
        <lane id="J2E_0" index="0" speed="13.89" length="53.27" shape="57.51,47.56 110.78,47.46"/>
        <lane id="J2E_1" index="1" speed="13.89" length="53.27" shape="57.52,50.76 110.79,50.66"/>
        <lane id="J2E_2" index="2" speed="13.89" length="53.27" shape="57.53,53.96 110.80,53.86"/>
    </edge>
    <edge id="J2N" from="J" to="N" priority="0">
        <lane id="J2N_0" index="0" speed="13.89" length="44.08" shape="52.02,69.20 52.83,113.27"/>
        <lane id="J2N_1" index="1" speed="13.89" length="44.08" shape="48.82,69.26 49.63,113.33"/>
        <lane id="J2N_2" index="2" speed="13.89" length="44.08" shape="45.62,69.32 46.43,113.39"/>
    </edge>
    <edge id="J2S" from="J" to="S" priority="0">
        <lane id="J2S_0" index="0" speed="13.89" length="45.01" shape="35.86,41.85 36.16,-3.15"/>
        <lane id="J2S_1" index="1" speed="13.89" length="45.01" shape="39.06,41.88 39.36,-3.13"/>
        <lane id="J2S_2" index="2" speed="13.89" length="45.01" shape="42.26,41.90 42.56,-3.11"/>
    </edge>
    <edge id="J2W" from="J" to="W" priority="0">
        <lane id="J2W_0" index="0" speed="13.89" length="56.04" shape="30.26,63.61 -25.78,63.69"/>
        <lane id="J2W_1" index="1" speed="13.89" length="56.04" shape="30.25,60.41 -25.78,60.49"/>
        <lane id="J2W_2" index="2" speed="13.89" length="56.04" shape="30.25,57.21 -25.79,57.29"/>
    </edge>
    <edge id="N2J" from="N" to="J" priority="0">
        <lane id="N2J_0" index="0" speed="13.89" length="44.08" shape="36.83,113.57 36.02,69.49"/>
        <lane id="N2J_1" index="1" speed="13.89" length="44.08" shape="40.03,113.51 39.22,69.43"/>
        <lane id="N2J_2" index="2" speed="13.89" length="44.08" shape="43.23,113.45 42.42,69.38"/>
    </edge>
    <edge id="S2J" from="S" to="J" priority="0">
        <lane id="S2J_0" index="0" speed="13.89" length="45.01" shape="52.16,-3.05 51.86,41.96"/>
        <lane id="S2J_1" index="1" speed="13.89" length="45.01" shape="48.96,-3.07 48.66,41.94"/>
        <lane id="S2J_2" index="2" speed="13.89" length="45.01" shape="45.76,-3.09 45.46,41.92"/>
    </edge>
    <edge id="W2J" from="W" to="J" priority="0">
        <lane id="W2J_0" index="0" speed="13.89" length="56.04" shape="-25.80,47.69 30.24,47.61"/>
        <lane id="W2J_1" index="1" speed="13.89" length="56.04" shape="-25.80,50.89 30.24,50.81"/>
        <lane id="W2J_2" index="2" speed="13.89" length="56.04" shape="-25.79,54.09 30.24,54.01"/>
    </edge>

    <junction id="E" type="dead_end" x="110.80" y="55.46" incLanes="J2E_0 J2E_1 J2E_2" intLanes="" shape="110.80,55.46 110.78,45.86 110.80,55.46"/>
    <junction id="J" type="priority" x="43.77" y="55.59" incLanes="N2J_0 N2J_1 N2J_2 E2J_0 E2J_1 E2J_2 S2J_0 S2J_1 S2J_2 W2J_0 W2J_1 W2J_2" intLanes=":J_0_0 :J_1_0 :J_1_1 :J_1_2 :J_4_0 :J_5_0 :J_6_0 :J_6_1 :J_6_2 :J_20_0 :J_10_0 :J_11_0 :J_11_1 :J_11_2 :J_14_0 :J_15_0 :J_16_0 :J_16_1 :J_16_2 :J_21_0" shape="34.42,69.52 53.62,69.17 54.02,66.95 54.57,66.17 55.33,65.61 56.33,65.28 57.55,65.16 57.51,45.96 55.25,45.52 54.46,44.97 53.90,44.19 53.57,43.19 53.46,41.97 34.26,41.84 33.80,44.16 33.24,44.97 32.46,45.54 31.46,45.89 30.23,46.01 30.26,65.21 32.54,65.69 33.34,66.28 33.93,67.12 34.29,68.20">
        <request index="0"  response="00000000000111000000" foes="00000000000111000000" cont="0"/>
        <request index="1"  response="11111000001111000000" foes="11111100001111000000" cont="0"/>
        <request index="2"  response="11111000001111000000" foes="11111100001111000000" cont="0"/>
        <request index="3"  response="11111000001111000000" foes="11111100001111000000" cont="0"/>
        <request index="4"  response="11110011101111000000" foes="11110011101111000000" cont="0"/>
        <request index="5"  response="00000000000000000000" foes="00000011100000000000" cont="0"/>
        <request index="6"  response="00000000000000000000" foes="10000111100000011111" cont="0"/>
        <request index="7"  response="00000000000000000000" foes="10000111100000011111" cont="0"/>
        <request index="8"  response="00000000000000000000" foes="10000111100000011111" cont="0"/>
        <request index="9"  response="01110000000000000000" foes="01110111100000011110" cont="1"/>
        <request index="10" response="01110000000000000000" foes="01110000000000000000" cont="0"/>
        <request index="11" response="11110000001111100000" foes="11110000001111110000" cont="0"/>
        <request index="12" response="11110000001111100000" foes="11110000001111110000" cont="0"/>
        <request index="13" response="11110000001111100000" foes="11110000001111110000" cont="0"/>
        <request index="14" response="11110000001111001110" foes="11110000001111001110" cont="0"/>
        <request index="15" response="00000000000000000000" foes="00000000000000001110" cont="0"/>
        <request index="16" response="00000000000000000000" foes="00000111111000011110" cont="0"/>
        <request index="17" response="00000000000000000000" foes="00000111111000011110" cont="0"/>
        <request index="18" response="00000000000000000000" foes="00000111111000011110" cont="0"/>
        <request index="19" response="00000000000111000000" foes="00000111100111011110" cont="1"/>
    </junction>
    <junction id="N" type="dead_end" x="44.83" y="113.42" incLanes="J2N_0 J2N_1 J2N_2" intLanes="" shape="44.83,113.42 54.43,113.24 44.83,113.42"/>
    <junction id="S" type="dead_end" x="44.16" y="-3.10" incLanes="J2S_0 J2S_1 J2S_2" intLanes="" shape="44.16,-3.10 34.56,-3.16 44.16,-3.10"/>
    <junction id="W" type="dead_end" x="-25.79" y="55.69" incLanes="J2W_0 J2W_1 J2W_2" intLanes="" shape="-25.79,55.69 -25.78,65.29 -25.79,55.69"/>

    <junction id=":J_20_0" type="internal" x="52.54" y="56.46" incLanes=":J_9_0 W2J_0 W2J_1 W2J_2" intLanes=":J_1_0 :J_1_1 :J_1_2 :J_4_0 :J_11_0 :J_11_1 :J_11_2 :J_14_0 :J_15_0 :J_16_0 :J_16_1 :J_16_2"/>
    <junction id=":J_21_0" type="internal" x="35.14" y="54.71" incLanes=":J_19_0 E2J_0 E2J_1 E2J_2" intLanes=":J_1_0 :J_1_1 :J_1_2 :J_4_0 :J_5_0 :J_6_0 :J_6_1 :J_6_2 :J_11_0 :J_11_1 :J_11_2 :J_14_0"/>

    <connection from="E2J" to="J2N" fromLane="0" toLane="0" via=":J_5_0" dir="r" state="M"/>
    <connection from="E2J" to="J2W" fromLane="0" toLane="0" via=":J_6_0" dir="s" state="M"/>
    <connection from="E2J" to="J2W" fromLane="1" toLane="1" via=":J_6_1" dir="s" state="M"/>
    <connection from="E2J" to="J2W" fromLane="2" toLane="2" via=":J_6_2" dir="s" state="M"/>
    <connection from="E2J" to="J2S" fromLane="2" toLane="2" via=":J_9_0" dir="l" state="m"/>
    <connection from="N2J" to="J2W" fromLane="0" toLane="0" via=":J_0_0" dir="r" state="m"/>
    <connection from="N2J" to="J2S" fromLane="0" toLane="0" via=":J_1_0" dir="s" state="m"/>
    <connection from="N2J" to="J2S" fromLane="1" toLane="1" via=":J_1_1" dir="s" state="m"/>
    <connection from="N2J" to="J2S" fromLane="2" toLane="2" via=":J_1_2" dir="s" state="m"/>
    <connection from="N2J" to="J2E" fromLane="2" toLane="2" via=":J_4_0" dir="l" state="m"/>
    <connection from="S2J" to="J2E" fromLane="0" toLane="0" via=":J_10_0" dir="r" state="m"/>
    <connection from="S2J" to="J2N" fromLane="0" toLane="0" via=":J_11_0" dir="s" state="m"/>
    <connection from="S2J" to="J2N" fromLane="1" toLane="1" via=":J_11_1" dir="s" state="m"/>
    <connection from="S2J" to="J2N" fromLane="2" toLane="2" via=":J_11_2" dir="s" state="m"/>
    <connection from="S2J" to="J2W" fromLane="2" toLane="2" via=":J_14_0" dir="l" state="m"/>
    <connection from="W2J" to="J2S" fromLane="0" toLane="0" via=":J_15_0" dir="r" state="M"/>
    <connection from="W2J" to="J2E" fromLane="0" toLane="0" via=":J_16_0" dir="s" state="M"/>
    <connection from="W2J" to="J2E" fromLane="1" toLane="1" via=":J_16_1" dir="s" state="M"/>
    <connection from="W2J" to="J2E" fromLane="2" toLane="2" via=":J_16_2" dir="s" state="M"/>
    <connection from="W2J" to="J2N" fromLane="2" toLane="2" via=":J_19_0" dir="l" state="m"/>

    <connection from=":J_0" to="J2W" fromLane="0" toLane="0" dir="r" state="M"/>
    <connection from=":J_1" to="J2S" fromLane="0" toLane="0" dir="s" state="M"/>
    <connection from=":J_1" to="J2S" fromLane="1" toLane="1" dir="s" state="M"/>
    <connection from=":J_1" to="J2S" fromLane="2" toLane="2" dir="s" state="M"/>
    <connection from=":J_4" to="J2E" fromLane="0" toLane="2" dir="l" state="M"/>
    <connection from=":J_5" to="J2N" fromLane="0" toLane="0" dir="r" state="M"/>
    <connection from=":J_6" to="J2W" fromLane="0" toLane="0" dir="s" state="M"/>
    <connection from=":J_6" to="J2W" fromLane="1" toLane="1" dir="s" state="M"/>
    <connection from=":J_6" to="J2W" fromLane="2" toLane="2" dir="s" state="M"/>
    <connection from=":J_9" to="J2S" fromLane="0" toLane="2" via=":J_20_0" dir="l" state="m"/>
    <connection from=":J_20" to="J2S" fromLane="0" toLane="2" dir="l" state="M"/>
    <connection from=":J_10" to="J2E" fromLane="0" toLane="0" dir="r" state="M"/>
    <connection from=":J_11" to="J2N" fromLane="0" toLane="0" dir="s" state="M"/>
    <connection from=":J_11" to="J2N" fromLane="1" toLane="1" dir="s" state="M"/>
    <connection from=":J_11" to="J2N" fromLane="2" toLane="2" dir="s" state="M"/>
    <connection from=":J_14" to="J2W" fromLane="0" toLane="2" dir="l" state="M"/>
    <connection from=":J_15" to="J2S" fromLane="0" toLane="0" dir="r" state="M"/>
    <connection from=":J_16" to="J2E" fromLane="0" toLane="0" dir="s" state="M"/>
    <connection from=":J_16" to="J2E" fromLane="1" toLane="1" dir="s" state="M"/>
    <connection from=":J_16" to="J2E" fromLane="2" toLane="2" dir="s" state="M"/>
    <connection from=":J_19" to="J2N" fromLane="0" toLane="2" via=":J_21_0" dir="l" state="m"/>
    <connection from=":J_21" to="J2N" fromLane="0" toLane="2" dir="l" state="M"/>

</net>
